
  SciTegic11241109112D

  0  0  0  0  0  0            999 V2000
M  END
> <Target>
1

> <F1>
1.332
0.844

> <F2>
0.545
-0.075

> <F3>
0.029
2.069

> <F4>
1.026
-1.360

> <F5>
-0.229
-0.810

> <F6>
1.038
-0.380

> <Serial>
0002

$$$$

  SciTegic11241109112D

  0  0  0  0  0  0            999 V2000
M  END
> <Target>
2

> <F1>
1.524
0.844

> <F2>
0.536
-0.075

> <F3>
0.809
2.069

> <F4>
0.734
-1.360

> <F5>
-0.196
-0.810

> <F6>
0.427
-0.380

> <Serial>
0002

$$$$

  SciTegic11241109112D

  0  0  0  0  0  0            999 V2000
M  END
> <Target>
3

> <F1>
1.524
0.329

> <F2>
0.536
-0.858

> <F3>
0.809
1.753

> <F4>
0.734
-0.479

> <F5>
-0.196
-0.835

> <F6>
0.427
0.289

> <Serial>
0002

$$$$

  SciTegic11241109112D

  0  0  0  0  0  0            999 V2000
M  END
> <Target>
4

> <F1>
0.207
0.844

> <F2>
0.821
-0.075

> <F3>
-1.009
2.069

> <F4>
1.387
-1.360

> <F5>
0.063
-0.810

> <F6>
-0.600
-0.380

> <Serial>
0002

$$$$

  SciTegic11241109112D

  0  0  0  0  0  0            999 V2000
M  END
> <Target>
5

> <F1>
-1.229
0.844

> <F2>
0.378
-0.075

> <F3>
0.516
2.069

> <F4>
-0.328
-1.360

> <F5>
-0.052
-0.810

> <F6>
2.728
-0.380

> <Serial>
0002

$$$$

  SciTegic11241109112D

  0  0  0  0  0  0            999 V2000
M  END
> <Target>
6

> <F1>
1.332
0.329

> <F2>
0.545
-0.858

> <F3>
0.029
1.753

> <F4>
1.026
-0.479

> <F5>
-0.229
-0.835

> <F6>
1.038
0.289

> <Serial>
0002

$$$$

  SciTegic11241109112D

  0  0  0  0  0  0            999 V2000
M  END
> <Target>
7

> <F1>
-0.205
0.844

> <F2>
-2.219
-0.075

> <F3>
-1.656
2.069

> <F4>
1.229
-1.360

> <F5>
-1.115
-0.810

> <F6>
-1.146
-0.380

> <Serial>
0002

$$$$

  SciTegic11241109112D

  0  0  0  0  0  0            999 V2000
M  END
> <Target>
8

> <F1>
1.332
1.247

> <F2>
0.545
0.293

> <F3>
0.029
1.336

> <F4>
1.026
-0.026

> <F5>
-0.229
0.012

> <F6>
1.038
-0.015

> <Serial>
0002

$$$$

  SciTegic11241109112D

  0  0  0  0  0  0            999 V2000
M  END
> <Target>
9

> <F1>
0.207
0.329

> <F2>
0.821
-0.858

> <F3>
-1.009
1.753

> <F4>
1.387
-0.479

> <F5>
0.063
-0.835

> <F6>
-0.600
0.289

> <Serial>
0002

$$$$

  SciTegic11241109112D

  0  0  0  0  0  0            999 V2000
M  END
> <Target>
10

> <F1>
1.524
-0.407

> <F2>
0.536
-2.038

> <F3>
0.809
-0.564

> <F4>
0.734
-0.128

> <F5>
-0.196
3.847

> <F6>
0.427
-1.008

> <Serial>
0002

$$$$

  SciTegic11241109112D

  0  0  0  0  0  0            999 V2000
M  END
> <Target>
11

> <F1>
-1.229
-0.407

> <F2>
0.378
-2.038

> <F3>
0.516
-0.564

> <F4>
-0.328
-0.128

> <F5>
-0.052
3.847

> <F6>
2.728
-1.008

> <Serial>
0002

$$$$

  SciTegic11241109112D

  0  0  0  0  0  0            999 V2000
M  END
> <Target>
12

> <F1>
0.207
1.247

> <F2>
0.821
0.293

> <F3>
-1.009
1.336

> <F4>
1.387
-0.026

> <F5>
0.063
0.012

> <F6>
-0.600
-0.015

> <Serial>
0002

$$$$

  SciTegic11241109112D

  0  0  0  0  0  0            999 V2000
M  END
> <Target>
13

> <F1>
-0.205
0.329

> <F2>
-2.219
-0.858

> <F3>
-1.656
1.753

> <F4>
1.229
-0.479

> <F5>
-1.115
-0.835

> <F6>
-1.146
0.289

> <Serial>
0002

$$$$

  SciTegic11241109112D

  0  0  0  0  0  0            999 V2000
M  END
> <Target>
14

> <F1>
0.207
-0.407

> <F2>
0.821
-2.038

> <F3>
-1.009
-0.564

> <F4>
1.387
-0.128

> <F5>
0.063
3.847

> <F6>
-0.600
-1.008

> <Serial>
0002

$$$$

  SciTegic11241109112D

  0  0  0  0  0  0            999 V2000
M  END
> <Target>
15

> <F1>
-1.229
1.247

> <F2>
0.378
0.293

> <F3>
0.516
1.336

> <F4>
-0.328
-0.026

> <F5>
-0.052
0.012

> <F6>
2.728
-0.015

> <Serial>
0002

$$$$

  SciTegic11241109112D

  0  0  0  0  0  0            999 V2000
M  END
> <Target>
16

> <F1>
1.332
-0.407

> <F2>
0.545
-2.038

> <F3>
0.029
-0.564

> <F4>
1.026
-0.128

> <F5>
-0.229
3.847

> <F6>
1.038
-1.008

> <Serial>
0002

$$$$

  SciTegic11241109112D

  0  0  0  0  0  0            999 V2000
M  END
> <Target>
17

> <F1>
-0.205
-0.407

> <F2>
-2.219
-2.038

> <F3>
-1.656
-0.564

> <F4>
1.229
-0.128

> <F5>
-1.115
3.847

> <F6>
-1.146
-1.008

> <Serial>
0002

$$$$

  SciTegic11241109112D

  0  0  0  0  0  0            999 V2000
M  END
> <Target>
18

> <F1>
-0.205
1.247

> <F2>
-2.219
0.293

> <F3>
-1.656
1.336

> <F4>
1.229
-0.026

> <F5>
-1.115
0.012

> <F6>
-1.146
-0.015

> <Serial>
0002

$$$$

  SciTegic11241109112D

  0  0  0  0  0  0            999 V2000
M  END
> <Target>
19

> <F1>
1.524
1.247

> <F2>
0.536
0.293

> <F3>
0.809
1.336

> <F4>
0.734
-0.026

> <F5>
-0.196
0.012

> <F6>
0.427
-0.015

> <Serial>
0002

$$$$

  SciTegic11241109112D

  0  0  0  0  0  0            999 V2000
M  END
> <Target>
20

> <F1>
1.332
-0.205

> <F2>
0.545
-2.219

> <F3>
0.029
-1.656

> <F4>
1.026
1.229

> <F5>
-0.229
-1.115

> <F6>
1.038
-1.146

> <Serial>
0002

$$$$

  SciTegic11241109112D

  0  0  0  0  0  0            999 V2000
M  END
> <Target>
21

> <F1>
1.524
-0.205

> <F2>
0.536
-2.219

> <F3>
0.809
-1.656

> <F4>
0.734
1.229

> <F5>
-0.196
-1.115

> <F6>
0.427
-1.146

> <Serial>
0002

$$$$

  SciTegic11241109112D

  0  0  0  0  0  0            999 V2000
M  END
> <Target>
22

> <F1>
-0.205
1.524

> <F2>
-2.219
0.536

> <F3>
-1.656
0.809

> <F4>
1.229
0.734

> <F5>
-1.115
-0.196

> <F6>
-1.146
0.427

> <Serial>
0002

$$$$

  SciTegic11241109112D

  0  0  0  0  0  0            999 V2000
M  END
> <Target>
23

> <F1>
-0.205
0.886

> <F2>
-2.219
1.346

> <F3>
-1.656
0.277

> <F4>
1.229
-0.913

> <F5>
-1.115
0.007

> <F6>
-1.146
-0.265

> <Serial>
0002

$$$$

  SciTegic11241109112D

  0  0  0  0  0  0            999 V2000
M  END
> <Target>
24

> <F1>
-0.205
0.207

> <F2>
-2.219
0.821

> <F3>
-1.656
-1.009

> <F4>
1.229
1.387

> <F5>
-1.115
0.063

> <F6>
-1.146
-0.600

> <Serial>
0002

$$$$

  SciTegic11241109112D

  0  0  0  0  0  0            999 V2000
M  END
> <Target>
25

> <F1>
0.329
-0.205

> <F2>
-0.858
-2.219

> <F3>
1.753
-1.656

> <F4>
-0.479
1.229

> <F5>
-0.835
-1.115

> <F6>
0.289
-1.146

> <Serial>
0002

$$$$

  SciTegic11241109112D

  0  0  0  0  0  0            999 V2000
M  END
> <Target>
26

> <F1>
-0.205
1.200

> <F2>
-2.219
1.128

> <F3>
-1.656
0.703

> <F4>
1.229
1.904

> <F5>
-1.115
0.536

> <F6>
-1.146
-0.141

> <Serial>
0002

$$$$

  SciTegic11241109112D

  0  0  0  0  0  0            999 V2000
M  END
> <Target>
27

> <F1>
0.207
-0.205

> <F2>
0.821
-2.219

> <F3>
-1.009
-1.656

> <F4>
1.387
1.229

> <F5>
0.063
-1.115

> <F6>
-0.600
-1.146

> <Serial>
0002

$$$$

  SciTegic11241109112D

  0  0  0  0  0  0            999 V2000
M  END
> <Target>
28

> <F1>
-0.205
-0.270

> <F2>
-2.219
0.461

> <F3>
-1.656
-0.024

> <F4>
1.229
-1.407

> <F5>
-1.115
0.001

> <F6>
-1.146
0.169

> <Serial>
0002

$$$$

  SciTegic11241109112D

  0  0  0  0  0  0            999 V2000
M  END
> <Target>
29

> <F1>
-0.205
-1.229

> <F2>
-2.219
0.378

> <F3>
-1.656
0.516

> <F4>
1.229
-0.328

> <F5>
-1.115
-0.052

> <F6>
-1.146
2.728

> <Serial>
0002

$$$$

  SciTegic11241109112D

  0  0  0  0  0  0            999 V2000
M  END
> <Target>
30

> <F1>
-1.387
-0.205

> <F2>
0.572
-2.219

> <F3>
0.285
-1.656

> <F4>
0.333
1.229

> <F5>
-0.169
-1.115

> <F6>
1.157
-1.146

> <Serial>
0002

$$$$

  SciTegic11241109112D

  0  0  0  0  0  0            999 V2000
M  END
> <Target>
31

> <F1>
1.247
-0.205

> <F2>
0.293
-2.219

> <F3>
1.336
-1.656

> <F4>
-0.026
1.229

> <F5>
0.012
-1.115

> <F6>
-0.015
-1.146

> <Serial>
0002

$$$$

  SciTegic11241109112D

  0  0  0  0  0  0            999 V2000
M  END
> <Target>
32

> <F1>
-0.205
-0.495

> <F2>
-2.219
-0.847

> <F3>
-1.656
-1.079

> <F4>
1.229
0.582

> <F5>
-1.115
0.035

> <F6>
-1.146
-0.068

> <Serial>
0002

$$$$

  SciTegic11241109112D

  0  0  0  0  0  0            999 V2000
M  END
> <Target>
33

> <F1>
-0.205
1.332

> <F2>
-2.219
0.545

> <F3>
-1.656
0.029

> <F4>
1.229
1.026

> <F5>
-1.115
-0.229

> <F6>
-1.146
1.038

> <Serial>
0002

$$$$

  SciTegic11241109112D

  0  0  0  0  0  0            999 V2000
M  END
> <Target>
34

> <F1>
0.886
-0.205

> <F2>
1.346
-2.219

> <F3>
0.277
-1.656

> <F4>
-0.913
1.229

> <F5>
0.007
-1.115

> <F6>
-0.265
-1.146

> <Serial>
0002

$$$$

  SciTegic11241109112D

  0  0  0  0  0  0            999 V2000
M  END
> <Target>
35

> <F1>
-0.205
-1.387

> <F2>
-2.219
0.572

> <F3>
-1.656
0.285

> <F4>
1.229
0.333

> <F5>
-1.115
-0.169

> <F6>
-1.146
1.157

> <Serial>
0002

$$$$

  SciTegic11241109112D

  0  0  0  0  0  0            999 V2000
M  END
> <Target>
36

> <F1>
-0.205
-1.349

> <F2>
-2.219
1.388

> <F3>
-1.656
-0.361

> <F4>
1.229
0.213

> <F5>
-1.115
0.424

> <F6>
-1.146
-1.303

> <Serial>
0002

$$$$

  SciTegic11241109112D

  0  0  0  0  0  0            999 V2000
M  END
> <Target>
37

> <F1>
-0.205
-0.032

> <F2>
-2.219
-0.450

> <F3>
-1.656
-0.610

> <F4>
1.229
0.341

> <F5>
-1.115
0.117

> <F6>
-1.146
0.577

> <Serial>
0002

$$$$

  SciTegic11241109112D

  0  0  0  0  0  0            999 V2000
M  END
> <Target>
38

> <F1>
0.844
-0.205

> <F2>
-0.075
-2.219

> <F3>
2.069
-1.656

> <F4>
-1.360
1.229

> <F5>
-0.810
-1.115

> <F6>
-0.380
-1.146

> <Serial>
0002

$$$$

  SciTegic11241109112D

  0  0  0  0  0  0            999 V2000
M  END
> <Target>
39

> <F1>
-0.270
-0.205

> <F2>
0.461
-2.219

> <F3>
-0.024
-1.656

> <F4>
-1.407
1.229

> <F5>
0.001
-1.115

> <F6>
0.169
-1.146

> <Serial>
0002

$$$$

  SciTegic11241109112D

  0  0  0  0  0  0            999 V2000
M  END
> <Target>
40

> <F1>
-0.205
-0.880

> <F2>
-2.219
0.381

> <F3>
-1.656
-0.044

> <F4>
1.229
-0.455

> <F5>
-1.115
-0.040

> <F6>
-1.146
0.405

> <Serial>
0002

$$$$

  SciTegic11241109112D

  0  0  0  0  0  0            999 V2000
M  END
> <Target>
41

> <F1>
-0.205
-0.205

> <F2>
-2.219
-2.219

> <F3>
-1.656
-1.656

> <F4>
1.229
1.229

> <F5>
-1.115
-1.115

> <F6>
-1.146
-1.146

> <Serial>
0002

$$$$

  SciTegic11241109112D

  0  0  0  0  0  0            999 V2000
M  END
> <Target>
42

> <F1>
-0.880
-0.205

> <F2>
0.381
-2.219

> <F3>
-0.044
-1.656

> <F4>
-0.455
1.229

> <F5>
-0.040
-1.115

> <F6>
0.405
-1.146

> <Serial>
0002

$$$$

  SciTegic11241109112D

  0  0  0  0  0  0            999 V2000
M  END
> <Target>
43

> <F1>
-0.495
-0.205

> <F2>
-0.847
-2.219

> <F3>
-1.079
-1.656

> <F4>
0.582
1.229

> <F5>
0.035
-1.115

> <F6>
-0.068
-1.146

> <Serial>
0002

$$$$

  SciTegic11241109112D

  0  0  0  0  0  0            999 V2000
M  END
> <Target>
44

> <F1>
1.200
-0.205

> <F2>
1.128
-2.219

> <F3>
0.703
-1.656

> <F4>
1.904
1.229

> <F5>
0.536
-1.115

> <F6>
-0.141
-1.146

> <Serial>
0002

$$$$

  SciTegic11241109112D

  0  0  0  0  0  0            999 V2000
M  END
> <Target>
45

> <F1>
-0.205
-1.298

> <F2>
-2.219
-0.444

> <F3>
-1.656
-0.584

> <F4>
1.229
-0.175

> <F5>
-1.115
-0.259

> <F6>
-1.146
-1.762

> <Serial>
0002

$$$$

  SciTegic11241109112D

  0  0  0  0  0  0            999 V2000
M  END
> <Target>
46

> <F1>
-0.032
-0.205

> <F2>
-0.450
-2.219

> <F3>
-0.610
-1.656

> <F4>
0.341
1.229

> <F5>
0.117
-1.115

> <F6>
0.577
-1.146

> <Serial>
0002

$$$$

  SciTegic11241109112D

  0  0  0  0  0  0            999 V2000
M  END
> <Target>
47

> <F1>
-1.349
-0.205

> <F2>
1.388
-2.219

> <F3>
-0.361
-1.656

> <F4>
0.213
1.229

> <F5>
0.424
-1.115

> <F6>
-1.303
-1.146

> <Serial>
0002

$$$$

  SciTegic11241109112D

  0  0  0  0  0  0            999 V2000
M  END
> <Target>
48

> <F1>
-1.298
-0.205

> <F2>
-0.444
-2.219

> <F3>
-0.584
-1.656

> <F4>
-0.175
1.229

> <F5>
-0.259
-1.115

> <F6>
-1.762
-1.146

> <Serial>
0002

$$$$

  SciTegic11241109112D

  0  0  0  0  0  0            999 V2000
M  END
> <Target>
49

> <F1>
-0.407
-0.205

> <F2>
-2.038
-2.219

> <F3>
-0.564
-1.656

> <F4>
-0.128
1.229

> <F5>
3.847
-1.115

> <F6>
-1.008
-1.146

> <Serial>
0002

$$$$

  SciTegic11241109112D

  0  0  0  0  0  0            999 V2000
M  END
> <Target>
50

> <F1>
1.200
0.207

> <F2>
1.128
0.821

> <F3>
0.703
-1.009

> <F4>
1.904
1.387

> <F5>
0.536
0.063

> <F6>
-0.141
-0.600

> <Serial>
0002

$$$$

  SciTegic11241109112D

  0  0  0  0  0  0            999 V2000
M  END
> <Target>
51

> <F1>
-1.387
0.207

> <F2>
0.572
0.821

> <F3>
0.285
-1.009

> <F4>
0.333
1.387

> <F5>
-0.169
0.063

> <F6>
1.157
-0.600

> <Serial>
0002

$$$$

  SciTegic11241109112D

  0  0  0  0  0  0            999 V2000
M  END
> <Target>
52

> <F1>
-1.229
0.207

> <F2>
0.378
0.821

> <F3>
0.516
-1.009

> <F4>
-0.328
1.387

> <F5>
-0.052
0.063

> <F6>
2.728
-0.600

> <Serial>
0002

$$$$

  SciTegic11241109112D

  0  0  0  0  0  0            999 V2000
M  END
> <Target>
53

> <F1>
0.329
0.207

> <F2>
-0.858
0.821

> <F3>
1.753
-1.009

> <F4>
-0.479
1.387

> <F5>
-0.835
0.063

> <F6>
0.289
-0.600

> <Serial>
0002

$$$$

  SciTegic11241109112D

  0  0  0  0  0  0            999 V2000
M  END
> <Target>
54

> <F1>
0.207
0.207

> <F2>
0.821
0.821

> <F3>
-1.009
-1.009

> <F4>
1.387
1.387

> <F5>
0.063
0.063

> <F6>
-0.600
-0.600

> <Serial>
0002

$$$$

  SciTegic11241109112D

  0  0  0  0  0  0            999 V2000
M  END
> <Target>
55

> <F1>
1.247
-1.229

> <F2>
0.293
0.378

> <F3>
1.336
0.516

> <F4>
-0.026
-0.328

> <F5>
0.012
-0.052

> <F6>
-0.015
2.728

> <Serial>
0002

$$$$

  SciTegic11241109112D

  0  0  0  0  0  0            999 V2000
M  END
> <Target>
56

> <F1>
-0.270
1.200

> <F2>
0.461
1.128

> <F3>
-0.024
0.703

> <F4>
-1.407
1.904

> <F5>
0.001
0.536

> <F6>
0.169
-0.141

> <Serial>
0002

$$$$

  SciTegic11241109112D

  0  0  0  0  0  0            999 V2000
M  END
> <Target>
57

> <F1>
-1.298
0.207

> <F2>
-0.444
0.821

> <F3>
-0.584
-1.009

> <F4>
-0.175
1.387

> <F5>
-0.259
0.063

> <F6>
-1.762
-0.600

> <Serial>
0002

$$$$

  SciTegic11241109112D

  0  0  0  0  0  0            999 V2000
M  END
> <Target>
58

> <F1>
-1.349
0.207

> <F2>
1.388
0.821

> <F3>
-0.361
-1.009

> <F4>
0.213
1.387

> <F5>
0.424
0.063

> <F6>
-1.303
-0.600

> <Serial>
0002

$$$$
