
  SciTegic11241109112D

  0  0  0  0  0  0            999 V2000
M  END
> <Target>
1

> <B1>
-1.127
-1.577

> <B2>
-1.227
2.281

> <B3>
-0.633
1.166

> <B4>
0.064
-1.610

> <B5>
-0.596
0.122

> <B6>
0.158
0.239

> <B7>
0.014
-0.542

> <B8>
0.016
-0.398

> <B9>
0.251
-0.349

> <B10>
0.607
0.499

> <Serial>
0001

$$$$

  SciTegic11241109112D

  0  0  0  0  0  0            999 V2000
M  END
> <Target>
2

> <B1>
-1.462
-1.577

> <B2>
-1.126
2.281

> <B3>
-0.761
1.166

> <B4>
0.382
-1.610

> <B5>
-0.599
0.122

> <B6>
0.276
0.239

> <B7>
-0.132
-0.542

> <B8>
0.198
-0.398

> <B9>
-0.216
-0.349

> <B10>
0.207
0.499

> <Serial>
0001

$$$$

  SciTegic11241109112D

  0  0  0  0  0  0            999 V2000
M  END
> <Target>
3

> <B1>
-1.462
-1.142

> <B2>
-1.126
1.740

> <B3>
-0.761
-0.582

> <B4>
0.382
0.747

> <B5>
-0.599
-0.119

> <B6>
0.276
-0.475

> <B7>
-0.132
0.241

> <B8>
0.198
-0.251

> <B9>
-0.216
0.713

> <B10>
0.207
-0.251

> <Serial>
0001

$$$$

  SciTegic11241109112D

  0  0  0  0  0  0            999 V2000
M  END
> <Target>
4

> <B1>
0.077
-1.577

> <B2>
-0.916
2.281

> <B3>
0.526
1.166

> <B4>
0.004
-1.610

> <B5>
0.240
0.122

> <B6>
0.190
0.239

> <B7>
0.656
-0.542

> <B8>
-0.047
-0.398

> <B9>
1.357
-0.349

> <B10>
0.333
0.499

> <Serial>
0001

$$$$

  SciTegic11241109112D

  0  0  0  0  0  0            999 V2000
M  END
> <Target>
5

> <B1>
1.014
-1.577

> <B2>
0.189
2.281

> <B3>
-0.860
1.166

> <B4>
-0.609
-1.610

> <B5>
1.277
0.122

> <B6>
0.195
0.239

> <B7>
0.661
-0.542

> <B8>
0.175
-0.398

> <B9>
-0.219
-0.349

> <B10>
-0.520
0.499

> <Serial>
0001

$$$$

  SciTegic11241109112D

  0  0  0  0  0  0            999 V2000
M  END
> <Target>
6

> <B1>
-1.127
-1.142

> <B2>
-1.227
1.740

> <B3>
-0.633
-0.582

> <B4>
0.064
0.747

> <B5>
-0.596
-0.119

> <B6>
0.158
-0.475

> <B7>
0.014
0.241

> <B8>
0.016
-0.251

> <B9>
0.251
0.713

> <B10>
0.607
-0.251

> <Serial>
0001

$$$$

  SciTegic11241109112D

  0  0  0  0  0  0            999 V2000
M  END
> <Target>
7

> <B1>
0.849
-1.577

> <B2>
0.174
2.281

> <B3>
1.726
1.166

> <B4>
0.093
-1.610

> <B5>
-0.548
0.122

> <B6>
1.186
0.239

> <B7>
1.213
-0.542

> <B8>
0.874
-0.398

> <B9>
0.009
-0.349

> <B10>
0.242
0.499

> <Serial>
0001

$$$$

  SciTegic11241109112D

  0  0  0  0  0  0            999 V2000
M  END
> <Target>
8

> <B1>
-1.127
-1.619

> <B2>
-1.227
1.007

> <B3>
-0.633
-0.311

> <B4>
0.064
0.623

> <B5>
-0.596
-0.549

> <B6>
0.158
0.290

> <B7>
0.014
-0.021

> <B8>
0.016
0.098

> <B9>
0.251
0.433

> <B10>
0.607
-1.288

> <Serial>
0001

$$$$

  SciTegic11241109112D

  0  0  0  0  0  0            999 V2000
M  END
> <Target>
9

> <B1>
0.077
-1.142

> <B2>
-0.916
1.740

> <B3>
0.526
-0.582

> <B4>
0.004
0.747

> <B5>
0.240
-0.119

> <B6>
0.190
-0.475

> <B7>
0.656
0.241

> <B8>
-0.047
-0.251

> <B9>
1.357
0.713

> <B10>
0.333
-0.251

> <Serial>
0001

$$$$

  SciTegic11241109112D

  0  0  0  0  0  0            999 V2000
M  END
> <Target>
10

> <B1>
-1.462
0.883

> <B2>
-1.126
-0.675

> <B3>
-0.761
0.382

> <B4>
0.382
-0.869

> <B5>
-0.599
-1.243

> <B6>
0.276
-2.023

> <B7>
-0.132
0.845

> <B8>
0.198
-0.352

> <B9>
-0.216
-0.421

> <B10>
0.207
-0.298

> <Serial>
0001

$$$$

  SciTegic11241109112D

  0  0  0  0  0  0            999 V2000
M  END
> <Target>
11

> <B1>
1.014
0.883

> <B2>
0.189
-0.675

> <B3>
-0.860
0.382

> <B4>
-0.609
-0.869

> <B5>
1.277
-1.243

> <B6>
0.195
-2.023

> <B7>
0.661
0.845

> <B8>
0.175
-0.352

> <B9>
-0.219
-0.421

> <B10>
-0.520
-0.298

> <Serial>
0001

$$$$

  SciTegic11241109112D

  0  0  0  0  0  0            999 V2000
M  END
> <Target>
12

> <B1>
0.077
-1.619

> <B2>
-0.916
1.007

> <B3>
0.526
-0.311

> <B4>
0.004
0.623

> <B5>
0.240
-0.549

> <B6>
0.190
0.290

> <B7>
0.656
-0.021

> <B8>
-0.047
0.098

> <B9>
1.357
0.433

> <B10>
0.333
-1.288

> <Serial>
0001

$$$$

  SciTegic11241109112D

  0  0  0  0  0  0            999 V2000
M  END
> <Target>
13

> <B1>
0.849
-1.142

> <B2>
0.174
1.740

> <B3>
1.726
-0.582

> <B4>
0.093
0.747

> <B5>
-0.548
-0.119

> <B6>
1.186
-0.475

> <B7>
1.213
0.241

> <B8>
0.874
-0.251

> <B9>
0.009
0.713

> <B10>
0.242
-0.251

> <Serial>
0001

$$$$

  SciTegic11241109112D

  0  0  0  0  0  0            999 V2000
M  END
> <Target>
14

> <B1>
0.077
0.883

> <B2>
-0.916
-0.675

> <B3>
0.526
0.382

> <B4>
0.004
-0.869

> <B5>
0.240
-1.243

> <B6>
0.190
-2.023

> <B7>
0.656
0.845

> <B8>
-0.047
-0.352

> <B9>
1.357
-0.421

> <B10>
0.333
-0.298

> <Serial>
0001

$$$$

  SciTegic11241109112D

  0  0  0  0  0  0            999 V2000
M  END
> <Target>
15

> <B1>
1.014
-1.619

> <B2>
0.189
1.007

> <B3>
-0.860
-0.311

> <B4>
-0.609
0.623

> <B5>
1.277
-0.549

> <B6>
0.195
0.290

> <B7>
0.661
-0.021

> <B8>
0.175
0.098

> <B9>
-0.219
0.433

> <B10>
-0.520
-1.288

> <Serial>
0001

$$$$

  SciTegic11241109112D

  0  0  0  0  0  0            999 V2000
M  END
> <Target>
16

> <B1>
-1.127
0.883

> <B2>
-1.227
-0.675

> <B3>
-0.633
0.382

> <B4>
0.064
-0.869

> <B5>
-0.596
-1.243

> <B6>
0.158
-2.023

> <B7>
0.014
0.845

> <B8>
0.016
-0.352

> <B9>
0.251
-0.421

> <B10>
0.607
-0.298

> <Serial>
0001

$$$$

  SciTegic11241109112D

  0  0  0  0  0  0            999 V2000
M  END
> <Target>
17

> <B1>
0.849
0.883

> <B2>
0.174
-0.675

> <B3>
1.726
0.382

> <B4>
0.093
-0.869

> <B5>
-0.548
-1.243

> <B6>
1.186
-2.023

> <B7>
1.213
0.845

> <B8>
0.874
-0.352

> <B9>
0.009
-0.421

> <B10>
0.242
-0.298

> <Serial>
0001

$$$$

  SciTegic11241109112D

  0  0  0  0  0  0            999 V2000
M  END
> <Target>
18

> <B1>
0.849
-1.619

> <B2>
0.174
1.007

> <B3>
1.726
-0.311

> <B4>
0.093
0.623

> <B5>
-0.548
-0.549

> <B6>
1.186
0.290

> <B7>
1.213
-0.021

> <B8>
0.874
0.098

> <B9>
0.009
0.433

> <B10>
0.242
-1.288

> <Serial>
0001

$$$$

  SciTegic11241109112D

  0  0  0  0  0  0            999 V2000
M  END
> <Target>
19

> <B1>
-1.462
-1.619

> <B2>
-1.126
1.007

> <B3>
-0.761
-0.311

> <B4>
0.382
0.623

> <B5>
-0.599
-0.549

> <B6>
0.276
0.290

> <B7>
-0.132
-0.021

> <B8>
0.198
0.098

> <B9>
-0.216
0.433

> <B10>
0.207
-1.288

> <Serial>
0001

$$$$

  SciTegic11241109112D

  0  0  0  0  0  0            999 V2000
M  END
> <Target>
20

> <B1>
-1.127
0.849

> <B2>
-1.227
0.174

> <B3>
-0.633
1.726

> <B4>
0.064
0.093

> <B5>
-0.596
-0.548

> <B6>
0.158
1.186

> <B7>
0.014
1.213

> <B8>
0.016
0.874

> <B9>
0.251
0.009

> <B10>
0.607
0.242

> <Serial>
0001

$$$$

  SciTegic11241109112D

  0  0  0  0  0  0            999 V2000
M  END
> <Target>
21

> <B1>
-1.462
0.849

> <B2>
-1.126
0.174

> <B3>
-0.761
1.726

> <B4>
0.382
0.093

> <B5>
-0.599
-0.548

> <B6>
0.276
1.186

> <B7>
-0.132
1.213

> <B8>
0.198
0.874

> <B9>
-0.216
0.009

> <B10>
0.207
0.242

> <Serial>
0001

$$$$

  SciTegic11241109112D

  0  0  0  0  0  0            999 V2000
M  END
> <Target>
22

> <B1>
0.849
-1.462

> <B2>
0.174
-1.126

> <B3>
1.726
-0.761

> <B4>
0.093
0.382

> <B5>
-0.548
-0.599

> <B6>
1.186
0.276

> <B7>
1.213
-0.132

> <B8>
0.874
0.198

> <B9>
0.009
-0.216

> <B10>
0.242
0.207

> <Serial>
0001

$$$$

  SciTegic11241109112D

  0  0  0  0  0  0            999 V2000
M  END
> <Target>
23

> <B1>
0.849
-0.963

> <B2>
0.174
-0.585

> <B3>
1.726
-0.972

> <B4>
0.093
-0.528

> <B5>
-0.548
0.236

> <B6>
1.186
0.365

> <B7>
1.213
0.062

> <B8>
0.874
0.208

> <B9>
0.009
-0.560

> <B10>
0.242
0.361

> <Serial>
0001

$$$$

  SciTegic11241109112D

  0  0  0  0  0  0            999 V2000
M  END
> <Target>
24

> <B1>
0.849
0.077

> <B2>
0.174
-0.916

> <B3>
1.726
0.526

> <B4>
0.093
0.004

> <B5>
-0.548
0.240

> <B6>
1.186
0.190

> <B7>
1.213
0.656

> <B8>
0.874
-0.047

> <B9>
0.009
1.357

> <B10>
0.242
0.333

> <Serial>
0001

$$$$

  SciTegic11241109112D

  0  0  0  0  0  0            999 V2000
M  END
> <Target>
25

> <B1>
-1.142
0.849

> <B2>
1.740
0.174

> <B3>
-0.582
1.726

> <B4>
0.747
0.093

> <B5>
-0.119
-0.548

> <B6>
-0.475
1.186

> <B7>
0.241
1.213

> <B8>
-0.251
0.874

> <B9>
0.713
0.009

> <B10>
-0.251
0.242

> <Serial>
0001

$$$$

  SciTegic11241109112D

  0  0  0  0  0  0            999 V2000
M  END
> <Target>
26

> <B1>
0.849
-1.406

> <B2>
0.174
-0.856

> <B3>
1.726
-0.879

> <B4>
0.093
-0.172

> <B5>
-0.548
0.032

> <B6>
1.186
0.344

> <B7>
1.213
0.109

> <B8>
0.874
0.146

> <B9>
0.009
-0.436

> <B10>
0.242
-0.021

> <Serial>
0001

$$$$

  SciTegic11241109112D

  0  0  0  0  0  0            999 V2000
M  END
> <Target>
27

> <B1>
0.077
0.849

> <B2>
-0.916
0.174

> <B3>
0.526
1.726

> <B4>
0.004
0.093

> <B5>
0.240
-0.548

> <B6>
0.190
1.186

> <B7>
0.656
1.213

> <B8>
-0.047
0.874

> <B9>
1.357
0.009

> <B10>
0.333
0.242

> <Serial>
0001

$$$$

  SciTegic11241109112D

  0  0  0  0  0  0            999 V2000
M  END
> <Target>
28

> <B1>
0.849
0.716

> <B2>
0.174
1.548

> <B3>
1.726
-0.802

> <B4>
0.093
1.547

> <B5>
-0.548
0.350

> <B6>
1.186
-0.785

> <B7>
1.213
0.655

> <B8>
0.874
-0.076

> <B9>
0.009
-0.186

> <B10>
0.242
0.990

> <Serial>
0001

$$$$

  SciTegic11241109112D

  0  0  0  0  0  0            999 V2000
M  END
> <Target>
29

> <B1>
0.849
1.014

> <B2>
0.174
0.189

> <B3>
1.726
-0.860

> <B4>
0.093
-0.609

> <B5>
-0.548
1.277

> <B6>
1.186
0.195

> <B7>
1.213
0.661

> <B8>
0.874
0.175

> <B9>
0.009
-0.219

> <B10>
0.242
-0.520

> <Serial>
0001

$$$$

  SciTegic11241109112D

  0  0  0  0  0  0            999 V2000
M  END
> <Target>
30

> <B1>
1.135
0.849

> <B2>
-0.039
0.174

> <B3>
-0.802
1.726

> <B4>
-0.849
0.093

> <B5>
0.819
-0.548

> <B6>
0.097
1.186

> <B7>
0.213
1.213

> <B8>
0.129
0.874

> <B9>
0.176
0.009

> <B10>
-0.850
0.242

> <Serial>
0001

$$$$

  SciTegic11241109112D

  0  0  0  0  0  0            999 V2000
M  END
> <Target>
31

> <B1>
-1.619
0.849

> <B2>
1.007
0.174

> <B3>
-0.311
1.726

> <B4>
0.623
0.093

> <B5>
-0.549
-0.548

> <B6>
0.290
1.186

> <B7>
-0.021
1.213

> <B8>
0.098
0.874

> <B9>
0.433
0.009

> <B10>
-1.288
0.242

> <Serial>
0001

$$$$

  SciTegic11241109112D

  0  0  0  0  0  0            999 V2000
M  END
> <Target>
32

> <B1>
0.849
0.844

> <B2>
0.174
-0.448

> <B3>
1.726
0.423

> <B4>
0.093
0.317

> <B5>
-0.548
0.200

> <B6>
1.186
0.541

> <B7>
1.213
0.009

> <B8>
0.874
-0.797

> <B9>
0.009
0.624

> <B10>
0.242
-0.129

> <Serial>
0001

$$$$

  SciTegic11241109112D

  0  0  0  0  0  0            999 V2000
M  END
> <Target>
33

> <B1>
0.849
-1.127

> <B2>
0.174
-1.227

> <B3>
1.726
-0.633

> <B4>
0.093
0.064

> <B5>
-0.548
-0.596

> <B6>
1.186
0.158

> <B7>
1.213
0.014

> <B8>
0.874
0.016

> <B9>
0.009
0.251

> <B10>
0.242
0.607

> <Serial>
0001

$$$$

  SciTegic11241109112D

  0  0  0  0  0  0            999 V2000
M  END
> <Target>
34

> <B1>
-0.963
0.849

> <B2>
-0.585
0.174

> <B3>
-0.972
1.726

> <B4>
-0.528
0.093

> <B5>
0.236
-0.548

> <B6>
0.365
1.186

> <B7>
0.062
1.213

> <B8>
0.208
0.874

> <B9>
-0.560
0.009

> <B10>
0.361
0.242

> <Serial>
0001

$$$$

  SciTegic11241109112D

  0  0  0  0  0  0            999 V2000
M  END
> <Target>
35

> <B1>
0.849
1.135

> <B2>
0.174
-0.039

> <B3>
1.726
-0.802

> <B4>
0.093
-0.849

> <B5>
-0.548
0.819

> <B6>
1.186
0.097

> <B7>
1.213
0.213

> <B8>
0.874
0.129

> <B9>
0.009
0.176

> <B10>
0.242
-0.850

> <Serial>
0001

$$$$

  SciTegic11241109112D

  0  0  0  0  0  0            999 V2000
M  END
> <Target>
36

> <B1>
0.849
1.477

> <B2>
0.174
0.229

> <B3>
1.726
-0.670

> <B4>
0.093
-0.355

> <B5>
-0.548
-0.284

> <B6>
1.186
-0.075

> <B7>
1.213
-1.014

> <B8>
0.874
0.363

> <B9>
0.009
0.769

> <B10>
0.242
0.298

> <Serial>
0001

$$$$

  SciTegic11241109112D

  0  0  0  0  0  0            999 V2000
M  END
> <Target>
37

> <B1>
0.849
0.188

> <B2>
0.174
-0.733

> <B3>
1.726
0.178

> <B4>
0.093
-0.012

> <B5>
-0.548
0.022

> <B6>
1.186
0.378

> <B7>
1.213
-0.304

> <B8>
0.874
-1.958

> <B9>
0.009
0.149

> <B10>
0.242
0.063

> <Serial>
0001

$$$$

  SciTegic11241109112D

  0  0  0  0  0  0            999 V2000
M  END
> <Target>
38

> <B1>
-1.577
0.849

> <B2>
2.281
0.174

> <B3>
1.166
1.726

> <B4>
-1.610
0.093

> <B5>
0.122
-0.548

> <B6>
0.239
1.186

> <B7>
-0.542
1.213

> <B8>
-0.398
0.874

> <B9>
-0.349
0.009

> <B10>
0.499
0.242

> <Serial>
0001

$$$$

  SciTegic11241109112D

  0  0  0  0  0  0            999 V2000
M  END
> <Target>
39

> <B1>
0.716
0.849

> <B2>
1.548
0.174

> <B3>
-0.802
1.726

> <B4>
1.547
0.093

> <B5>
0.350
-0.548

> <B6>
-0.785
1.186

> <B7>
0.655
1.213

> <B8>
-0.076
0.874

> <B9>
-0.186
0.009

> <B10>
0.990
0.242

> <Serial>
0001

$$$$

  SciTegic11241109112D

  0  0  0  0  0  0            999 V2000
M  END
> <Target>
40

> <B1>
0.849
1.094

> <B2>
0.174
0.296

> <B3>
1.726
-0.871

> <B4>
0.093
-0.718

> <B5>
-0.548
0.500

> <B6>
1.186
-0.080

> <B7>
1.213
-0.442

> <B8>
0.874
0.202

> <B9>
0.009
0.384

> <B10>
0.242
0.667

> <Serial>
0001

$$$$

  SciTegic11241109112D

  0  0  0  0  0  0            999 V2000
M  END
> <Target>
41

> <B1>
0.849
0.849

> <B2>
0.174
0.174

> <B3>
1.726
1.726

> <B4>
0.093
0.093

> <B5>
-0.548
-0.548

> <B6>
1.186
1.186

> <B7>
1.213
1.213

> <B8>
0.874
0.874

> <B9>
0.009
0.009

> <B10>
0.242
0.242

> <Serial>
0001

$$$$

  SciTegic11241109112D

  0  0  0  0  0  0            999 V2000
M  END
> <Target>
42

> <B1>
1.094
0.849

> <B2>
0.296
0.174

> <B3>
-0.871
1.726

> <B4>
-0.718
0.093

> <B5>
0.500
-0.548

> <B6>
-0.080
1.186

> <B7>
-0.442
1.213

> <B8>
0.202
0.874

> <B9>
0.384
0.009

> <B10>
0.667
0.242

> <Serial>
0001

$$$$

  SciTegic11241109112D

  0  0  0  0  0  0            999 V2000
M  END
> <Target>
43

> <B1>
0.844
0.849

> <B2>
-0.448
0.174

> <B3>
0.423
1.726

> <B4>
0.317
0.093

> <B5>
0.200
-0.548

> <B6>
0.541
1.186

> <B7>
0.009
1.213

> <B8>
-0.797
0.874

> <B9>
0.624
0.009

> <B10>
-0.129
0.242

> <Serial>
0001

$$$$

  SciTegic11241109112D

  0  0  0  0  0  0            999 V2000
M  END
> <Target>
44

> <B1>
-1.406
0.849

> <B2>
-0.856
0.174

> <B3>
-0.879
1.726

> <B4>
-0.172
0.093

> <B5>
0.032
-0.548

> <B6>
0.344
1.186

> <B7>
0.109
1.213

> <B8>
0.146
0.874

> <B9>
-0.436
0.009

> <B10>
-0.021
0.242

> <Serial>
0001

$$$$

  SciTegic11241109112D

  0  0  0  0  0  0            999 V2000
M  END
> <Target>
45

> <B1>
0.849
1.551

> <B2>
0.174
0.005

> <B3>
1.726
0.323

> <B4>
0.093
0.493

> <B5>
-0.548
-0.991

> <B6>
1.186
0.010

> <B7>
1.213
-1.615

> <B8>
0.874
0.526

> <B9>
0.009
-0.150

> <B10>
0.242
-0.282

> <Serial>
0001

$$$$

  SciTegic11241109112D

  0  0  0  0  0  0            999 V2000
M  END
> <Target>
46

> <B1>
0.188
0.849

> <B2>
-0.733
0.174

> <B3>
0.178
1.726

> <B4>
-0.012
0.093

> <B5>
0.022
-0.548

> <B6>
0.378
1.186

> <B7>
-0.304
1.213

> <B8>
-1.958
0.874

> <B9>
0.149
0.009

> <B10>
0.063
0.242

> <Serial>
0001

$$$$

  SciTegic11241109112D

  0  0  0  0  0  0            999 V2000
M  END
> <Target>
47

> <B1>
1.477
0.849

> <B2>
0.229
0.174

> <B3>
-0.670
1.726

> <B4>
-0.355
0.093

> <B5>
-0.284
-0.548

> <B6>
-0.075
1.186

> <B7>
-1.014
1.213

> <B8>
0.363
0.874

> <B9>
0.769
0.009

> <B10>
0.298
0.242

> <Serial>
0001

$$$$

  SciTegic11241109112D

  0  0  0  0  0  0            999 V2000
M  END
> <Target>
48

> <B1>
1.551
0.849

> <B2>
0.005
0.174

> <B3>
0.323
1.726

> <B4>
0.493
0.093

> <B5>
-0.991
-0.548

> <B6>
0.010
1.186

> <B7>
-1.615
1.213

> <B8>
0.526
0.874

> <B9>
-0.150
0.009

> <B10>
-0.282
0.242

> <Serial>
0001

$$$$

  SciTegic11241109112D

  0  0  0  0  0  0            999 V2000
M  END
> <Target>
49

> <B1>
0.883
0.849

> <B2>
-0.675
0.174

> <B3>
0.382
1.726

> <B4>
-0.869
0.093

> <B5>
-1.243
-0.548

> <B6>
-2.023
1.186

> <B7>
0.845
1.213

> <B8>
-0.352
0.874

> <B9>
-0.421
0.009

> <B10>
-0.298
0.242

> <Serial>
0001

$$$$

  SciTegic11241109112D

  0  0  0  0  0  0            999 V2000
M  END
> <Target>
50

> <B1>
-1.406
0.077

> <B2>
-0.856
-0.916

> <B3>
-0.879
0.526

> <B4>
-0.172
0.004

> <B5>
0.032
0.240

> <B6>
0.344
0.190

> <B7>
0.109
0.656

> <B8>
0.146
-0.047

> <B9>
-0.436
1.357

> <B10>
-0.021
0.333

> <Serial>
0001

$$$$

  SciTegic11241109112D

  0  0  0  0  0  0            999 V2000
M  END
> <Target>
51

> <B1>
1.135
0.077

> <B2>
-0.039
-0.916

> <B3>
-0.802
0.526

> <B4>
-0.849
0.004

> <B5>
0.819
0.240

> <B6>
0.097
0.190

> <B7>
0.213
0.656

> <B8>
0.129
-0.047

> <B9>
0.176
1.357

> <B10>
-0.850
0.333

> <Serial>
0001

$$$$

  SciTegic11241109112D

  0  0  0  0  0  0            999 V2000
M  END
> <Target>
52

> <B1>
1.014
0.077

> <B2>
0.189
-0.916

> <B3>
-0.860
0.526

> <B4>
-0.609
0.004

> <B5>
1.277
0.240

> <B6>
0.195
0.190

> <B7>
0.661
0.656

> <B8>
0.175
-0.047

> <B9>
-0.219
1.357

> <B10>
-0.520
0.333

> <Serial>
0001

$$$$

  SciTegic11241109112D

  0  0  0  0  0  0            999 V2000
M  END
> <Target>
53

> <B1>
-1.142
0.077

> <B2>
1.740
-0.916

> <B3>
-0.582
0.526

> <B4>
0.747
0.004

> <B5>
-0.119
0.240

> <B6>
-0.475
0.190

> <B7>
0.241
0.656

> <B8>
-0.251
-0.047

> <B9>
0.713
1.357

> <B10>
-0.251
0.333

> <Serial>
0001

$$$$

  SciTegic11241109112D

  0  0  0  0  0  0            999 V2000
M  END
> <Target>
54

> <B1>
0.077
0.077

> <B2>
-0.916
-0.916

> <B3>
0.526
0.526

> <B4>
0.004
0.004

> <B5>
0.240
0.240

> <B6>
0.190
0.190

> <B7>
0.656
0.656

> <B8>
-0.047
-0.047

> <B9>
1.357
1.357

> <B10>
0.333
0.333

> <Serial>
0001

$$$$

  SciTegic11241109112D

  0  0  0  0  0  0            999 V2000
M  END
> <Target>
55

> <B1>
-1.619
1.014

> <B2>
1.007
0.189

> <B3>
-0.311
-0.860

> <B4>
0.623
-0.609

> <B5>
-0.549
1.277

> <B6>
0.290
0.195

> <B7>
-0.021
0.661

> <B8>
0.098
0.175

> <B9>
0.433
-0.219

> <B10>
-1.288
-0.520

> <Serial>
0001

$$$$

  SciTegic11241109112D

  0  0  0  0  0  0            999 V2000
M  END
> <Target>
56

> <B1>
0.716
-1.406

> <B2>
1.548
-0.856

> <B3>
-0.802
-0.879

> <B4>
1.547
-0.172

> <B5>
0.350
0.032

> <B6>
-0.785
0.344

> <B7>
0.655
0.109

> <B8>
-0.076
0.146

> <B9>
-0.186
-0.436

> <B10>
0.990
-0.021

> <Serial>
0001

$$$$

  SciTegic11241109112D

  0  0  0  0  0  0            999 V2000
M  END
> <Target>
57

> <B1>
1.551
0.077

> <B2>
0.005
-0.916

> <B3>
0.323
0.526

> <B4>
0.493
0.004

> <B5>
-0.991
0.240

> <B6>
0.010
0.190

> <B7>
-1.615
0.656

> <B8>
0.526
-0.047

> <B9>
-0.150
1.357

> <B10>
-0.282
0.333

> <Serial>
0001

$$$$

  SciTegic11241109112D

  0  0  0  0  0  0            999 V2000
M  END
> <Target>
58

> <B1>
1.477
0.077

> <B2>
0.229
-0.916

> <B3>
-0.670
0.526

> <B4>
-0.355
0.004

> <B5>
-0.284
0.240

> <B6>
-0.075
0.190

> <B7>
-1.014
0.656

> <B8>
0.363
-0.047

> <B9>
0.769
1.357

> <B10>
0.298
0.333

> <Serial>
0001

$$$$
