
  SciTegic10051114352D

  0  0  0  0  0  0            999 V2000
M  END
> <Peptide>
1

> <pIC50>
5.80

> <Amino_acid_sequence>
V
W

> <Amino_acid_number>
1
2

> <MW1>
-1.00
1.00

> <MW2>
0.79
0.98

> <MW3>
-0.58
-0.47

> <Serial>
0003

$$$$

  SciTegic10051114352D

  0  0  0  0  0  0            999 V2000
M  END
> <Peptide>
2

> <pIC50>
5.70

> <Amino_acid_sequence>
I
W

> <Amino_acid_number>
1
2

> <MW1>
-0.91
1.00

> <MW2>
0.83
0.98

> <MW3>
-0.25
-0.47

> <Serial>
0003

$$$$

  SciTegic10051114352D

  0  0  0  0  0  0            999 V2000
M  END
> <Peptide>
3

> <pIC50>
5.43

> <Amino_acid_sequence>
I
Y

> <Amino_acid_number>
1
2

> <MW1>
-0.91
0.97

> <MW2>
0.83
0.66

> <MW3>
-0.25
-0.16

> <Serial>
0003

$$$$

  SciTegic10051114352D

  0  0  0  0  0  0            999 V2000
M  END
> <Peptide>
4

> <pIC50>
5.00

> <Amino_acid_sequence>
A
W

> <Amino_acid_number>
1
2

> <MW1>
-0.73
1.00

> <MW2>
0.20
0.98

> <MW3>
-0.62
-0.47

> <Serial>
0003

$$$$

  SciTegic10051114352D

  0  0  0  0  0  0            999 V2000
M  END
> <Peptide>
5

> <pIC50>
4.80

> <Amino_acid_sequence>
R
W

> <Amino_acid_number>
1
2

> <MW1>
-0.22
1.00

> <MW2>
0.27
0.98

> <MW3>
1.00
-0.47

> <Serial>
0003

$$$$

  SciTegic10051114352D

  0  0  0  0  0  0            999 V2000
M  END
> <Peptide>
6

> <pIC50>
4.66

> <Amino_acid_sequence>
V
Y

> <Amino_acid_number>
1
2

> <MW1>
-1.00
0.97

> <MW2>
0.79
0.66

> <MW3>
-0.58
-0.16

> <Serial>
0003

$$$$

  SciTegic10051114352D

  0  0  0  0  0  0            999 V2000
M  END
> <Peptide>
7

> <pIC50>
4.52

> <Amino_acid_sequence>
G
W

> <Amino_acid_number>
1
2

> <MW1>
-0.31
1.00

> <MW2>
-0.28
0.98

> <MW3>
-0.75
-0.47

> <Serial>
0003

$$$$

  SciTegic10051114352D

  0  0  0  0  0  0            999 V2000
M  END
> <Peptide>
8

> <pIC50>
4.28

> <Amino_acid_sequence>
V
F

> <Amino_acid_number>
1
2

> <MW1>
-1.00
0.76

> <MW2>
0.79
0.85

> <MW3>
-0.58
-0.34

> <Serial>
0003

$$$$

  SciTegic10051114352D

  0  0  0  0  0  0            999 V2000
M  END
> <Peptide>
9

> <pIC50>
4.06

> <Amino_acid_sequence>
A
Y

> <Amino_acid_number>
1
2

> <MW1>
-0.73
0.97

> <MW2>
0.20
0.66

> <MW3>
-0.62
-0.16

> <Serial>
0003

$$$$

  SciTegic10051114352D

  0  0  0  0  0  0            999 V2000
M  END
> <Peptide>
10

> <pIC50>
3.89

> <Amino_acid_sequence>
I
P

> <Amino_acid_number>
1
2

> <MW1>
-0.91
-0.43

> <MW2>
0.83
0.73

> <MW3>
-0.25
-0.60

> <Serial>
0003

$$$$

  SciTegic10051114352D

  0  0  0  0  0  0            999 V2000
M  END
> <Peptide>
11

> <pIC50>
3.74

> <Amino_acid_sequence>
R
P

> <Amino_acid_number>
1
2

> <MW1>
-0.22
-0.43

> <MW2>
0.27
0.73

> <MW3>
1.00
-0.60

> <Serial>
0003

$$$$

  SciTegic10051114352D

  0  0  0  0  0  0            999 V2000
M  END
> <Peptide>
12

> <pIC50>
3.72

> <Amino_acid_sequence>
A
F

> <Amino_acid_number>
1
2

> <MW1>
-0.73
0.76

> <MW2>
0.20
0.85

> <MW3>
-0.62
-0.34

> <Serial>
0003

$$$$

  SciTegic10051114352D

  0  0  0  0  0  0            999 V2000
M  END
> <Peptide>
13

> <pIC50>
3.68

> <Amino_acid_sequence>
G
Y

> <Amino_acid_number>
1
2

> <MW1>
-0.31
0.97

> <MW2>
-0.28
0.66

> <MW3>
-0.75
-0.16

> <Serial>
0003

$$$$

  SciTegic10051114352D

  0  0  0  0  0  0            999 V2000
M  END
> <Peptide>
14

> <pIC50>
3.64

> <Amino_acid_sequence>
A
P

> <Amino_acid_number>
1
2

> <MW1>
-0.73
-0.43

> <MW2>
0.20
0.73

> <MW3>
-0.62
-0.60

> <Serial>
0003

$$$$

  SciTegic10051114352D

  0  0  0  0  0  0            999 V2000
M  END
> <Peptide>
15

> <pIC50>
3.64

> <Amino_acid_sequence>
R
F

> <Amino_acid_number>
1
2

> <MW1>
-0.22
0.76

> <MW2>
0.27
0.85

> <MW3>
1.00
-0.34

> <Serial>
0003

$$$$

  SciTegic10051114352D

  0  0  0  0  0  0            999 V2000
M  END
> <Peptide>
16

> <pIC50>
3.38

> <Amino_acid_sequence>
V
P

> <Amino_acid_number>
1
2

> <MW1>
-1.00
-0.43

> <MW2>
0.79
0.73

> <MW3>
-0.58
-0.60

> <Serial>
0003

$$$$

  SciTegic10051114352D

  0  0  0  0  0  0            999 V2000
M  END
> <Peptide>
17

> <pIC50>
3.35

> <Amino_acid_sequence>
G
P

> <Amino_acid_number>
1
2

> <MW1>
-0.31
-0.43

> <MW2>
-0.28
0.73

> <MW3>
-0.75
-0.60

> <Serial>
0003

$$$$

  SciTegic10051114352D

  0  0  0  0  0  0            999 V2000
M  END
> <Peptide>
18

> <pIC50>
3.20

> <Amino_acid_sequence>
G
F

> <Amino_acid_number>
1
2

> <MW1>
-0.31
0.76

> <MW2>
-0.28
0.85

> <MW3>
-0.75
-0.34

> <Serial>
0003

$$$$

  SciTegic10051114352D

  0  0  0  0  0  0            999 V2000
M  END
> <Peptide>
19

> <pIC50>
3.03

> <Amino_acid_sequence>
I
F

> <Amino_acid_number>
1
2

> <MW1>
-0.91
0.76

> <MW2>
0.83
0.85

> <MW3>
-0.25
-0.34

> <Serial>
0003

$$$$

  SciTegic10051114352D

  0  0  0  0  0  0            999 V2000
M  END
> <Peptide>
20

> <pIC50>
2.96

> <Amino_acid_sequence>
V
G

> <Amino_acid_number>
1
2

> <MW1>
-1.00
-0.31

> <MW2>
0.79
-0.28

> <MW3>
-0.58
-0.75

> <Serial>
0003

$$$$

  SciTegic10051114352D

  0  0  0  0  0  0            999 V2000
M  END
> <Peptide>
21

> <pIC50>
2.92

> <Amino_acid_sequence>
I
G

> <Amino_acid_number>
1
2

> <MW1>
-0.91
-0.31

> <MW2>
0.83
-0.28

> <MW3>
-0.25
-0.75

> <Serial>
0003

$$$$

  SciTegic10051114352D

  0  0  0  0  0  0            999 V2000
M  END
> <Peptide>
22

> <pIC50>
2.92

> <Amino_acid_sequence>
G
I

> <Amino_acid_number>
1
2

> <MW1>
-0.31
-0.91

> <MW2>
-0.28
0.83

> <MW3>
-0.75
-0.25

> <Serial>
0003

$$$$

  SciTegic10051114352D

  0  0  0  0  0  0            999 V2000
M  END
> <Peptide>
23

> <pIC50>
2.85

> <Amino_acid_sequence>
G
M

> <Amino_acid_number>
1
2

> <MW1>
-0.31
-0.70

> <MW2>
-0.28
1.00

> <MW3>
-0.75
-0.32

> <Serial>
0003

$$$$

  SciTegic10051114352D

  0  0  0  0  0  0            999 V2000
M  END
> <Peptide>
24

> <pIC50>
2.70

> <Amino_acid_sequence>
G
A

> <Amino_acid_number>
1
2

> <MW1>
-0.31
-0.73

> <MW2>
-0.28
0.20

> <MW3>
-0.75
-0.62

> <Serial>
0003

$$$$

  SciTegic10051114352D

  0  0  0  0  0  0            999 V2000
M  END
> <Peptide>
25

> <pIC50>
2.70

> <Amino_acid_sequence>
Y
G

> <Amino_acid_number>
1
2

> <MW1>
0.97
-0.31

> <MW2>
0.66
-0.28

> <MW3>
-0.16
-0.75

> <Serial>
0003

$$$$

  SciTegic10051114352D

  0  0  0  0  0  0            999 V2000
M  END
> <Peptide>
26

> <pIC50>
2.60

> <Amino_acid_sequence>
G
L

> <Amino_acid_number>
1
2

> <MW1>
-0.31
-0.74

> <MW2>
-0.28
0.72

> <MW3>
-0.75
-0.16

> <Serial>
0003

$$$$

  SciTegic10051114352D

  0  0  0  0  0  0            999 V2000
M  END
> <Peptide>
27

> <pIC50>
2.60

> <Amino_acid_sequence>
A
G

> <Amino_acid_number>
1
2

> <MW1>
-0.73
-0.31

> <MW2>
0.20
-0.28

> <MW3>
-0.62
-0.75

> <Serial>
0003

$$$$

  SciTegic10051114352D

  0  0  0  0  0  0            999 V2000
M  END
> <Peptide>
28

> <pIC50>
2.51

> <Amino_acid_sequence>
G
H

> <Amino_acid_number>
1
2

> <MW1>
-0.31
0.84

> <MW2>
-0.28
0.67

> <MW3>
-0.75
-0.78

> <Serial>
0003

$$$$

  SciTegic10051114352D

  0  0  0  0  0  0            999 V2000
M  END
> <Peptide>
29

> <pIC50>
2.49

> <Amino_acid_sequence>
G
R

> <Amino_acid_number>
1
2

> <MW1>
-0.31
-0.22

> <MW2>
-0.28
0.27

> <MW3>
-0.75
1.00

> <Serial>
0003

$$$$

  SciTegic10051114352D

  0  0  0  0  0  0            999 V2000
M  END
> <Peptide>
30

> <pIC50>
2.49

> <Amino_acid_sequence>
K
G

> <Amino_acid_number>
1
2

> <MW1>
-0.51
-0.31

> <MW2>
0.08
-0.28

> <MW3>
0.60
-0.75

> <Serial>
0003

$$$$

  SciTegic10051114352D

  0  0  0  0  0  0            999 V2000
M  END
> <Peptide>
30

> <pIC50>
2.49

> <Amino_acid_sequence>
K
G

> <Amino_acid_number>
1
2

> <MW1>
-0.51
-0.31

> <MW2>
0.08
-0.28

> <MW3>
0.60
-0.75

> <Serial>
0003

$$$$

  SciTegic10051114352D

  0  0  0  0  0  0            999 V2000
M  END
> <Peptide>
31

> <pIC50>
2.43

> <Amino_acid_sequence>
F
G

> <Amino_acid_number>
1
2

> <MW1>
0.76
-0.31

> <MW2>
0.85
-0.28

> <MW3>
-0.34
-0.75

> <Serial>
0003

$$$$

  SciTegic10051114352D

  0  0  0  0  0  0            999 V2000
M  END
> <Peptide>
32

> <pIC50>
2.42

> <Amino_acid_sequence>
G
S

> <Amino_acid_number>
1
2

> <MW1>
-0.31
-0.80

> <MW2>
-0.28
0.61

> <MW3>
-0.75
-1.00

> <Serial>
0003

$$$$

  SciTegic10051114352D

  0  0  0  0  0  0            999 V2000
M  END
> <Peptide>
33

> <pIC50>
2.34

> <Amino_acid_sequence>
G
V

> <Amino_acid_number>
1
2

> <MW1>
-0.31
-1.00

> <MW2>
-0.28
0.79

> <MW3>
-0.75
-0.58

> <Serial>
0003

$$$$

  SciTegic10051114352D

  0  0  0  0  0  0            999 V2000
M  END
> <Peptide>
34

> <pIC50>
2.32

> <Amino_acid_sequence>
M
G

> <Amino_acid_number>
1
2

> <MW1>
-0.70
-0.31

> <MW2>
1.00
-0.28

> <MW3>
-0.32
-0.75

> <Serial>
0003

$$$$

  SciTegic10051114352D

  0  0  0  0  0  0            999 V2000
M  END
> <Peptide>
35

> <pIC50>
2.27

> <Amino_acid_sequence>
G
K

> <Amino_acid_number>
1
2

> <MW1>
-0.31
-0.51

> <MW2>
-0.28
0.08

> <MW3>
-0.75
0.60

> <Serial>
0003

$$$$

  SciTegic10051114352D

  0  0  0  0  0  0            999 V2000
M  END
> <Peptide>
36

> <pIC50>
2.27

> <Amino_acid_sequence>
G
E

> <Amino_acid_number>
1
2

> <MW1>
-0.31
0.24

> <MW2>
-0.28
-0.39

> <MW3>
-0.75
-0.04

> <Serial>
0003

$$$$

  SciTegic10051114352D

  0  0  0  0  0  0            999 V2000
M  END
> <Peptide>
37

> <pIC50>
2.24

> <Amino_acid_sequence>
G
T

> <Amino_acid_number>
1
2

> <MW1>
-0.31
-0.58

> <MW2>
-0.28
0.85

> <MW3>
-0.75
-0.89

> <Serial>
0003

$$$$

  SciTegic10051114352D

  0  0  0  0  0  0            999 V2000
M  END
> <Peptide>
38

> <pIC50>
2.23

> <Amino_acid_sequence>
W
G

> <Amino_acid_number>
1
2

> <MW1>
1.00
-0.31

> <MW2>
0.98
-0.28

> <MW3>
-0.47
-0.75

> <Serial>
0003

$$$$

  SciTegic10051114352D

  0  0  0  0  0  0            999 V2000
M  END
> <Peptide>
39

> <pIC50>
2.20

> <Amino_acid_sequence>
H
G

> <Amino_acid_number>
1
2

> <MW1>
0.84
-0.31

> <MW2>
0.67
-0.28

> <MW3>
-0.78
-0.75

> <Serial>
0003

$$$$

  SciTegic10051114352D

  0  0  0  0  0  0            999 V2000
M  END
> <Peptide>
40

> <pIC50>
2.15

> <Amino_acid_sequence>
G
Q

> <Amino_acid_number>
1
2

> <MW1>
-0.31
0.30

> <MW2>
-0.28
1.00

> <MW3>
-0.75
-0.30

> <Serial>
0003

$$$$

  SciTegic10051114352D

  0  0  0  0  0  0            999 V2000
M  END
> <Peptide>
41

> <pIC50>
2.14

> <Amino_acid_sequence>
G
G

> <Amino_acid_number>
1
2

> <MW1>
-0.31
-0.31

> <MW2>
-0.28
-0.28

> <MW3>
-0.75
-0.75

> <Serial>
0003

$$$$

  SciTegic10051114352D

  0  0  0  0  0  0            999 V2000
M  END
> <Peptide>
42

> <pIC50>
2.13

> <Amino_acid_sequence>
Q
G

> <Amino_acid_number>
1
2

> <MW1>
0.30
-0.31

> <MW2>
1.00
-0.28

> <MW3>
-0.30
-0.75

> <Serial>
0003

$$$$

  SciTegic10051114352D

  0  0  0  0  0  0            999 V2000
M  END
> <Peptide>
43

> <pIC50>
2.07

> <Amino_acid_sequence>
S
G

> <Amino_acid_number>
1
2

> <MW1>
-0.80
-0.31

> <MW2>
0.61
-0.28

> <MW3>
-1.00
-0.75

> <Serial>
0003

$$$$

  SciTegic10051114352D

  0  0  0  0  0  0            999 V2000
M  END
> <Peptide>
44

> <pIC50>
2.06

> <Amino_acid_sequence>
L
G

> <Amino_acid_number>
1
2

> <MW1>
-0.74
-0.31

> <MW2>
0.72
-0.28

> <MW3>
-0.16
-0.75

> <Serial>
0003

$$$$

  SciTegic10051114352D

  0  0  0  0  0  0            999 V2000
M  END
> <Peptide>
45

> <pIC50>
2.04

> <Amino_acid_sequence>
G
D

> <Amino_acid_number>
1
2

> <MW1>
-0.31
0.11

> <MW2>
-0.28
-1.00

> <MW3>
-0.75
-0.96

> <Serial>
0003

$$$$

  SciTegic10051114352D

  0  0  0  0  0  0            999 V2000
M  END
> <Peptide>
46

> <pIC50>
2.00

> <Amino_acid_sequence>
T
G

> <Amino_acid_number>
1
2

> <MW1>
-0.58
-0.31

> <MW2>
0.85
-0.28

> <MW3>
-0.89
-0.75

> <Serial>
0003

$$$$

  SciTegic10051114352D

  0  0  0  0  0  0            999 V2000
M  END
> <Peptide>
47

> <pIC50>
2.00

> <Amino_acid_sequence>
E
G

> <Amino_acid_number>
1
2

> <MW1>
0.24
-0.31

> <MW2>
-0.39
-0.28

> <MW3>
-0.04
-0.75

> <Serial>
0003

$$$$

  SciTegic10051114352D

  0  0  0  0  0  0            999 V2000
M  END
> <Peptide>
48

> <pIC50>
1.85

> <Amino_acid_sequence>
D
G

> <Amino_acid_number>
1
2

> <MW1>
0.11
-0.31

> <MW2>
-1.00
-0.28

> <MW3>
-0.96
-0.75

> <Serial>
0003

$$$$

  SciTegic10051114352D

  0  0  0  0  0  0            999 V2000
M  END
> <Peptide>
49

> <pIC50>
1.77

> <Amino_acid_sequence>
P
G

> <Amino_acid_number>
1
2

> <MW1>
-0.43
-0.31

> <MW2>
0.73
-0.28

> <MW3>
-0.60
-0.75

> <Serial>
0003

$$$$

  SciTegic10051114352D

  0  0  0  0  0  0            999 V2000
M  END
> <Peptide>
50

> <pIC50>
3.51

> <Amino_acid_sequence>
L
A

> <Amino_acid_number>
1
2

> <MW1>
-0.74
-0.73

> <MW2>
0.72
0.20

> <MW3>
-0.16
-0.62

> <Serial>
0003

$$$$

  SciTegic10051114352D

  0  0  0  0  0  0            999 V2000
M  END
> <Peptide>
51

> <pIC50>
3.42

> <Amino_acid_sequence>
K
A

> <Amino_acid_number>
1
2

> <MW1>
-0.51
-0.73

> <MW2>
0.08
0.20

> <MW3>
0.60
-0.62

> <Serial>
0003

$$$$

  SciTegic10051114352D

  0  0  0  0  0  0            999 V2000
M  END
> <Peptide>
52

> <pIC50>
3.34

> <Amino_acid_sequence>
R
A

> <Amino_acid_number>
1
2

> <MW1>
-0.22
-0.73

> <MW2>
0.27
0.20

> <MW3>
1.00
-0.62

> <Serial>
0003

$$$$

  SciTegic10051114352D

  0  0  0  0  0  0            999 V2000
M  END
> <Peptide>
53

> <pIC50>
3.34

> <Amino_acid_sequence>
Y
A

> <Amino_acid_number>
1
2

> <MW1>
0.97
-0.73

> <MW2>
0.66
0.20

> <MW3>
-0.16
-0.62

> <Serial>
0003

$$$$

  SciTegic10051114352D

  0  0  0  0  0  0            999 V2000
M  END
> <Peptide>
54

> <pIC50>
3.21

> <Amino_acid_sequence>
A
A

> <Amino_acid_number>
1
2

> <MW1>
-0.73
-0.73

> <MW2>
0.20
0.20

> <MW3>
-0.62
-0.62

> <Serial>
0003

$$$$

  SciTegic10051114352D

  0  0  0  0  0  0            999 V2000
M  END
> <Peptide>
55

> <pIC50>
3.04

> <Amino_acid_sequence>
F
R

> <Amino_acid_number>
1
2

> <MW1>
0.76
-0.22

> <MW2>
0.85
0.27

> <MW3>
-0.34
1.00

> <Serial>
0003

$$$$

  SciTegic10051114352D

  0  0  0  0  0  0            999 V2000
M  END
> <Peptide>
56

> <pIC50>
2.49

> <Amino_acid_sequence>
H
L

> <Amino_acid_number>
1
2

> <MW1>
0.84
-0.74

> <MW2>
0.67
0.72

> <MW3>
-0.78
-0.16

> <Serial>
0003

$$$$

  SciTegic10051114352D

  0  0  0  0  0  0            999 V2000
M  END
> <Peptide>
57

> <pIC50>
2.42

> <Amino_acid_sequence>
D
A

> <Amino_acid_number>
1
2

> <MW1>
0.11
-0.73

> <MW2>
-1.00
0.20

> <MW3>
-0.96
-0.62

> <Serial>
0003

$$$$

  SciTegic10051114352D

  0  0  0  0  0  0            999 V2000
M  END
> <Peptide>
58

> <pIC50>
2.00

> <Amino_acid_sequence>
E
A

> <Amino_acid_number>
1
2

> <MW1>
0.24
-0.73

> <MW2>
-0.39
0.20

> <MW3>
-0.04
-0.62

> <Serial>
0003

$$$$
